[root]
type=Root
children=system
eventq_index=0
full_system=true
sim_quantum=0
time_sync_enable=false
time_sync_period=100000000000
time_sync_spin_threshold=100000000

[system]
type=System
children=bridge clk_domain cpu cpu_clk_domain cpu_voltage_domain dvfs_handler iobus iocache mem_ctrls membus platform voltage_domain workload
auto_unlink_shared_backstore=false
cache_line_size=64
eventq_index=0
exit_on_work_items=false
init_param=0
m5ops_base=0
mem_mode=atomic
mem_ranges=2147483648:2415919104
memories=system.mem_ctrls.dram
mmap_using_noreserve=false
multi_thread=false
num_work_ids=16
readfile=
redirect_paths=
shadow_rom_ranges=
shared_backstore=
symbolfile=
thermal_components=
thermal_model=Null
work_begin_ckpt_count=0
work_begin_cpu_id_exit=-1
work_begin_exit_count=0
work_cpus_ckpt_count=0
work_end_ckpt_count=0
work_end_exit_count=0
work_item_id=-1
workload=system.workload
system_port=system.membus.cpu_side_ports[0]

[system.bridge]
type=Bridge
children=power_state
clk_domain=system.clk_domain
delay=50000
eventq_index=0
power_model=
power_state=system.bridge.power_state
ranges=268435456:268435464
req_size=16
resp_size=16
cpu_side_port=system.membus.mem_side_ports[0]
mem_side_port=system.iobus.cpu_side_ports[0]

[system.bridge.power_state]
type=PowerState
clk_gate_bins=20
clk_gate_max=1000000000000
clk_gate_min=1000
default_state=UNDEFINED
eventq_index=0
leaders=
possible_states=

[system.clk_domain]
type=SrcClockDomain
clock=1000
domain_id=-1
eventq_index=0
init_perf_level=0
voltage_domain=system.voltage_domain

[system.cpu]
type=BaseAtomicSimpleCPU
children=dcache decoder dtb_walker_cache icache interrupts isa itb_walker_cache mmu power_state tracer
branchPred=Null
checker=Null
clk_domain=system.cpu_clk_domain
cpu_id=0
decoder=system.cpu.decoder
do_checkpoint_insts=true
do_statistics_insts=true
eventq_index=0
function_trace=false
function_trace_start=0
interrupts=system.cpu.interrupts
isa=system.cpu.isa
max_insts_all_threads=0
max_insts_any_thread=0
mmu=system.cpu.mmu
numThreads=1
power_gating_on_idle=false
power_model=
power_state=system.cpu.power_state
progress_interval=0
pwr_gating_latency=300
simpoint_start_insts=
simulate_data_stalls=false
simulate_inst_stalls=false
socket_id=0
switched_out=false
syscallRetryLatency=10000
system=system
tracer=system.cpu.tracer
width=1
workload=
dcache_port=system.cpu.dcache.cpu_side
icache_port=system.cpu.icache.cpu_side

[system.cpu.dcache]
type=Cache
children=power_state replacement_policy tags
addr_ranges=0:18446744073709551615
assoc=2
clk_domain=system.cpu_clk_domain
clusivity=mostly_incl
compressor=Null
data_latency=2
demand_mshr_reserve=1
eventq_index=0
is_read_only=false
max_miss_count=0
move_contractions=true
mshrs=4
power_model=
power_state=system.cpu.dcache.power_state
prefetch_on_access=false
prefetch_on_pf_hit=false
prefetcher=Null
replace_expansions=true
replacement_policy=system.cpu.dcache.replacement_policy
response_latency=2
sequential_access=false
size=65536
system=system
tag_latency=2
tags=system.cpu.dcache.tags
tgts_per_mshr=20
warmup_percentage=0
write_allocator=Null
write_buffers=8
writeback_clean=false
cpu_side=system.cpu.dcache_port
mem_side=system.membus.cpu_side_ports[3]

[system.cpu.dcache.power_state]
type=PowerState
clk_gate_bins=20
clk_gate_max=1000000000000
clk_gate_min=1000
default_state=UNDEFINED
eventq_index=0
leaders=
possible_states=

[system.cpu.dcache.replacement_policy]
type=LRURP
eventq_index=0

[system.cpu.dcache.tags]
type=BaseSetAssoc
children=indexing_policy power_state
assoc=2
block_size=64
clk_domain=system.cpu_clk_domain
entry_size=64
eventq_index=0
indexing_policy=system.cpu.dcache.tags.indexing_policy
power_model=
power_state=system.cpu.dcache.tags.power_state
replacement_policy=system.cpu.dcache.replacement_policy
sequential_access=false
size=65536
system=system
tag_latency=2
warmup_percentage=0

[system.cpu.dcache.tags.indexing_policy]
type=SetAssociative
assoc=2
entry_size=64
eventq_index=0
size=65536

[system.cpu.dcache.tags.power_state]
type=PowerState
clk_gate_bins=20
clk_gate_max=1000000000000
clk_gate_min=1000
default_state=UNDEFINED
eventq_index=0
leaders=
possible_states=

[system.cpu.decoder]
type=RiscvDecoder
eventq_index=0
isa=system.cpu.isa

[system.cpu.dtb_walker_cache]
type=Cache
children=power_state replacement_policy tags
addr_ranges=0:18446744073709551615
assoc=2
clk_domain=system.cpu_clk_domain
clusivity=mostly_incl
compressor=Null
data_latency=2
demand_mshr_reserve=1
eventq_index=0
is_read_only=false
max_miss_count=0
move_contractions=true
mshrs=10
power_model=
power_state=system.cpu.dtb_walker_cache.power_state
prefetch_on_access=false
prefetch_on_pf_hit=false
prefetcher=Null
replace_expansions=true
replacement_policy=system.cpu.dtb_walker_cache.replacement_policy
response_latency=2
sequential_access=false
size=1024
system=system
tag_latency=2
tags=system.cpu.dtb_walker_cache.tags
tgts_per_mshr=12
warmup_percentage=0
write_allocator=Null
write_buffers=8
writeback_clean=false
cpu_side=system.cpu.mmu.dtb.walker.port
mem_side=system.membus.cpu_side_ports[5]

[system.cpu.dtb_walker_cache.power_state]
type=PowerState
clk_gate_bins=20
clk_gate_max=1000000000000
clk_gate_min=1000
default_state=UNDEFINED
eventq_index=0
leaders=
possible_states=

[system.cpu.dtb_walker_cache.replacement_policy]
type=LRURP
eventq_index=0

[system.cpu.dtb_walker_cache.tags]
type=BaseSetAssoc
children=indexing_policy power_state
assoc=2
block_size=64
clk_domain=system.cpu_clk_domain
entry_size=64
eventq_index=0
indexing_policy=system.cpu.dtb_walker_cache.tags.indexing_policy
power_model=
power_state=system.cpu.dtb_walker_cache.tags.power_state
replacement_policy=system.cpu.dtb_walker_cache.replacement_policy
sequential_access=false
size=1024
system=system
tag_latency=2
warmup_percentage=0

[system.cpu.dtb_walker_cache.tags.indexing_policy]
type=SetAssociative
assoc=2
entry_size=64
eventq_index=0
size=1024

[system.cpu.dtb_walker_cache.tags.power_state]
type=PowerState
clk_gate_bins=20
clk_gate_max=1000000000000
clk_gate_min=1000
default_state=UNDEFINED
eventq_index=0
leaders=
possible_states=

[system.cpu.icache]
type=Cache
children=power_state replacement_policy tags
addr_ranges=0:18446744073709551615
assoc=2
clk_domain=system.cpu_clk_domain
clusivity=mostly_incl
compressor=Null
data_latency=2
demand_mshr_reserve=1
eventq_index=0
is_read_only=true
max_miss_count=0
move_contractions=true
mshrs=4
power_model=
power_state=system.cpu.icache.power_state
prefetch_on_access=false
prefetch_on_pf_hit=false
prefetcher=Null
replace_expansions=true
replacement_policy=system.cpu.icache.replacement_policy
response_latency=2
sequential_access=false
size=32768
system=system
tag_latency=2
tags=system.cpu.icache.tags
tgts_per_mshr=20
warmup_percentage=0
write_allocator=Null
write_buffers=8
writeback_clean=true
cpu_side=system.cpu.icache_port
mem_side=system.membus.cpu_side_ports[2]

[system.cpu.icache.power_state]
type=PowerState
clk_gate_bins=20
clk_gate_max=1000000000000
clk_gate_min=1000
default_state=UNDEFINED
eventq_index=0
leaders=
possible_states=

[system.cpu.icache.replacement_policy]
type=LRURP
eventq_index=0

[system.cpu.icache.tags]
type=BaseSetAssoc
children=indexing_policy power_state
assoc=2
block_size=64
clk_domain=system.cpu_clk_domain
entry_size=64
eventq_index=0
indexing_policy=system.cpu.icache.tags.indexing_policy
power_model=
power_state=system.cpu.icache.tags.power_state
replacement_policy=system.cpu.icache.replacement_policy
sequential_access=false
size=32768
system=system
tag_latency=2
warmup_percentage=0

[system.cpu.icache.tags.indexing_policy]
type=SetAssociative
assoc=2
entry_size=64
eventq_index=0
size=32768

[system.cpu.icache.tags.power_state]
type=PowerState
clk_gate_bins=20
clk_gate_max=1000000000000
clk_gate_min=1000
default_state=UNDEFINED
eventq_index=0
leaders=
possible_states=

[system.cpu.interrupts]
type=RiscvInterrupts
eventq_index=0

[system.cpu.isa]
type=RiscvISA
check_alignment=false
eventq_index=0

[system.cpu.itb_walker_cache]
type=Cache
children=power_state replacement_policy tags
addr_ranges=0:18446744073709551615
assoc=2
clk_domain=system.cpu_clk_domain
clusivity=mostly_incl
compressor=Null
data_latency=2
demand_mshr_reserve=1
eventq_index=0
is_read_only=false
max_miss_count=0
move_contractions=true
mshrs=10
power_model=
power_state=system.cpu.itb_walker_cache.power_state
prefetch_on_access=false
prefetch_on_pf_hit=false
prefetcher=Null
replace_expansions=true
replacement_policy=system.cpu.itb_walker_cache.replacement_policy
response_latency=2
sequential_access=false
size=1024
system=system
tag_latency=2
tags=system.cpu.itb_walker_cache.tags
tgts_per_mshr=12
warmup_percentage=0
write_allocator=Null
write_buffers=8
writeback_clean=false
cpu_side=system.cpu.mmu.itb.walker.port
mem_side=system.membus.cpu_side_ports[4]

[system.cpu.itb_walker_cache.power_state]
type=PowerState
clk_gate_bins=20
clk_gate_max=1000000000000
clk_gate_min=1000
default_state=UNDEFINED
eventq_index=0
leaders=
possible_states=

[system.cpu.itb_walker_cache.replacement_policy]
type=LRURP
eventq_index=0

[system.cpu.itb_walker_cache.tags]
type=BaseSetAssoc
children=indexing_policy power_state
assoc=2
block_size=64
clk_domain=system.cpu_clk_domain
entry_size=64
eventq_index=0
indexing_policy=system.cpu.itb_walker_cache.tags.indexing_policy
power_model=
power_state=system.cpu.itb_walker_cache.tags.power_state
replacement_policy=system.cpu.itb_walker_cache.replacement_policy
sequential_access=false
size=1024
system=system
tag_latency=2
warmup_percentage=0

[system.cpu.itb_walker_cache.tags.indexing_policy]
type=SetAssociative
assoc=2
entry_size=64
eventq_index=0
size=1024

[system.cpu.itb_walker_cache.tags.power_state]
type=PowerState
clk_gate_bins=20
clk_gate_max=1000000000000
clk_gate_min=1000
default_state=UNDEFINED
eventq_index=0
leaders=
possible_states=

[system.cpu.mmu]
type=RiscvMMU
children=dtb itb pma_checker pmp
dtb=system.cpu.mmu.dtb
eventq_index=0
itb=system.cpu.mmu.itb
pma_checker=system.cpu.mmu.pma_checker
pmp=system.cpu.mmu.pmp

[system.cpu.mmu.dtb]
type=RiscvTLB
children=walker
entry_type=data
eventq_index=0
next_level=Null
pma_checker=system.cpu.mmu.pma_checker
pmp=system.cpu.mmu.pmp
size=64
walker=system.cpu.mmu.dtb.walker

[system.cpu.mmu.dtb.walker]
type=RiscvPagetableWalker
children=power_state
clk_domain=system.cpu_clk_domain
eventq_index=0
num_squash_per_cycle=4
pma_checker=system.cpu.mmu.pma_checker
pmp=system.cpu.mmu.pmp
power_model=
power_state=system.cpu.mmu.dtb.walker.power_state
system=system
port=system.cpu.dtb_walker_cache.cpu_side

[system.cpu.mmu.dtb.walker.power_state]
type=PowerState
clk_gate_bins=20
clk_gate_max=1000000000000
clk_gate_min=1000
default_state=UNDEFINED
eventq_index=0
leaders=
possible_states=

[system.cpu.mmu.itb]
type=RiscvTLB
children=walker
entry_type=instruction
eventq_index=0
next_level=Null
pma_checker=system.cpu.mmu.pma_checker
pmp=system.cpu.mmu.pmp
size=64
walker=system.cpu.mmu.itb.walker

[system.cpu.mmu.itb.walker]
type=RiscvPagetableWalker
children=power_state
clk_domain=system.cpu_clk_domain
eventq_index=0
num_squash_per_cycle=4
pma_checker=system.cpu.mmu.pma_checker
pmp=system.cpu.mmu.pmp
power_model=
power_state=system.cpu.mmu.itb.walker.power_state
system=system
port=system.cpu.itb_walker_cache.cpu_side

[system.cpu.mmu.itb.walker.power_state]
type=PowerState
clk_gate_bins=20
clk_gate_max=1000000000000
clk_gate_min=1000
default_state=UNDEFINED
eventq_index=0
leaders=
possible_states=

[system.cpu.mmu.pma_checker]
type=PMAChecker
eventq_index=0
uncacheable=33554432:33603584 201326592:268435456 268435456:268435464

[system.cpu.mmu.pmp]
type=PMP
eventq_index=0
pmp_entries=16

[system.cpu.power_state]
type=PowerState
clk_gate_bins=20
clk_gate_max=1000000000000
clk_gate_min=1000
default_state=UNDEFINED
eventq_index=0
leaders=
possible_states=ON CLK_GATED OFF

[system.cpu.tracer]
type=ExeTracer
eventq_index=0

[system.cpu_clk_domain]
type=SrcClockDomain
clock=500
domain_id=-1
eventq_index=0
init_perf_level=0
voltage_domain=system.cpu_voltage_domain

[system.cpu_voltage_domain]
type=VoltageDomain
eventq_index=0
voltage=1.0

[system.dvfs_handler]
type=DVFSHandler
domains=
enable=false
eventq_index=0
sys_clk_domain=system.clk_domain
transition_latency=100000000

[system.iobus]
type=NoncoherentXBar
children=power_state
clk_domain=system.clk_domain
eventq_index=0
forward_latency=1
frontend_latency=2
header_latency=1
power_model=
power_state=system.iobus.power_state
response_latency=2
use_default_range=false
width=16
cpu_side_ports=system.bridge.mem_side_port
mem_side_ports=system.platform.uart.pio system.iocache.cpu_side

[system.iobus.power_state]
type=PowerState
clk_gate_bins=20
clk_gate_max=1000000000000
clk_gate_min=1000
default_state=UNDEFINED
eventq_index=0
leaders=
possible_states=

[system.iocache]
type=Cache
children=power_state replacement_policy tags
addr_ranges=2147483648:2415919104
assoc=8
clk_domain=system.clk_domain
clusivity=mostly_incl
compressor=Null
data_latency=50
demand_mshr_reserve=1
eventq_index=0
is_read_only=false
max_miss_count=0
move_contractions=true
mshrs=20
power_model=
power_state=system.iocache.power_state
prefetch_on_access=false
prefetch_on_pf_hit=false
prefetcher=Null
replace_expansions=true
replacement_policy=system.iocache.replacement_policy
response_latency=50
sequential_access=false
size=1024
system=system
tag_latency=50
tags=system.iocache.tags
tgts_per_mshr=12
warmup_percentage=0
write_allocator=Null
write_buffers=8
writeback_clean=false
cpu_side=system.iobus.mem_side_ports[1]
mem_side=system.membus.cpu_side_ports[1]

[system.iocache.power_state]
type=PowerState
clk_gate_bins=20
clk_gate_max=1000000000000
clk_gate_min=1000
default_state=UNDEFINED
eventq_index=0
leaders=
possible_states=

[system.iocache.replacement_policy]
type=LRURP
eventq_index=0

[system.iocache.tags]
type=BaseSetAssoc
children=indexing_policy power_state
assoc=8
block_size=64
clk_domain=system.clk_domain
entry_size=64
eventq_index=0
indexing_policy=system.iocache.tags.indexing_policy
power_model=
power_state=system.iocache.tags.power_state
replacement_policy=system.iocache.replacement_policy
sequential_access=false
size=1024
system=system
tag_latency=50
warmup_percentage=0

[system.iocache.tags.indexing_policy]
type=SetAssociative
assoc=8
entry_size=64
eventq_index=0
size=1024

[system.iocache.tags.power_state]
type=PowerState
clk_gate_bins=20
clk_gate_max=1000000000000
clk_gate_min=1000
default_state=UNDEFINED
eventq_index=0
leaders=
possible_states=

[system.mem_ctrls]
type=MemCtrl
children=dram power_state
clk_domain=system.clk_domain
command_window=10000
disable_sanity_check=false
dram=system.mem_ctrls.dram
eventq_index=0
mem_sched_policy=frfcfs
min_reads_per_switch=16
min_writes_per_switch=16
power_model=
power_state=system.mem_ctrls.power_state
qos_policy=Null
qos_priorities=1
qos_priority_escalation=false
qos_q_policy=fifo
qos_requestors=               
qos_syncro_scheduler=false
qos_turnaround_policy=Null
static_backend_latency=10000
static_frontend_latency=10000
system=system
write_high_thresh_perc=85
write_low_thresh_perc=50
port=system.membus.mem_side_ports[3]

[system.mem_ctrls.dram]
type=DRAMInterface
children=power_state
IDD0=0.048
IDD02=0.003
IDD2N=0.034
IDD2N2=0.0
IDD2P0=0.0
IDD2P02=0.0
IDD2P1=0.025
IDD2P12=0.0
IDD3N=0.043000000000000003
IDD3N2=0.003
IDD3P0=0.0
IDD3P02=0.0
IDD3P1=0.037
IDD3P12=0.0
IDD4R=0.135
IDD4R2=0.0
IDD4W=0.123
IDD4W2=0.0
IDD5=0.25
IDD52=0.0
IDD6=0.03
IDD62=0.0
VDD=1.2
VDD2=2.5
activation_limit=4
addr_mapping=RoRaBaCoCh
bank_groups_per_rank=4
banks_per_rank=16
beats_per_clock=2
burst_length=8
clk_domain=system.clk_domain
conf_table_reported=true
data_clock_sync=false
device_bus_width=8
device_rowbuffer_size=1024
device_size=1073741824
devices_per_rank=8
dll=true
enable_dram_powerdown=false
eventq_index=0
image_file=
in_addr_map=true
kvm_map=true
max_accesses_per_row=16
null=false
page_policy=open_adaptive
power_model=
power_state=system.mem_ctrls.dram.power_state
range=2147483648:2415919104
ranks_per_channel=2
read_buffer_size=64
tAAD=833
tBURST=3332
tBURST_MAX=3332
tBURST_MIN=3332
tCCD_L=5000
tCCD_L_WR=5000
tCK=833
tCL=14160
tCS=1666
tCWL=14160
tPPD=0
tRAS=32000
tRCD=14160
tRCD_WR=14160
tREFI=7800000
tRFC=350000
tRP=14160
tRRD=3332
tRRD_L=4900
tRTP=7500
tRTW=1666
tWR=15000
tWTR=5000
tWTR_L=5000
tXAW=21000
tXP=6000
tXPDLL=0
tXS=340000
tXSDLL=0
two_cycle_activate=false
write_buffer_size=128

[system.mem_ctrls.dram.power_state]
type=PowerState
clk_gate_bins=20
clk_gate_max=1000000000000
clk_gate_min=1000
default_state=UNDEFINED
eventq_index=0
leaders=
possible_states=

[system.mem_ctrls.power_state]
type=PowerState
clk_gate_bins=20
clk_gate_max=1000000000000
clk_gate_min=1000
default_state=UNDEFINED
eventq_index=0
leaders=
possible_states=

[system.membus]
type=CoherentXBar
children=badaddr_responder power_state snoop_filter
clk_domain=system.clk_domain
eventq_index=0
forward_latency=4
frontend_latency=3
header_latency=1
max_outstanding_snoops=512
max_routing_table_size=512
point_of_coherency=true
point_of_unification=true
power_model=
power_state=system.membus.power_state
response_latency=2
snoop_filter=system.membus.snoop_filter
snoop_response_latency=4
system=system
use_default_range=false
width=16
cpu_side_ports=system.system_port system.iocache.mem_side system.cpu.icache.mem_side system.cpu.dcache.mem_side system.cpu.itb_walker_cache.mem_side system.cpu.dtb_walker_cache.mem_side
default=system.membus.badaddr_responder.pio
mem_side_ports=system.bridge.cpu_side_port system.platform.clint.pio system.platform.plic.pio system.mem_ctrls.port

[system.membus.badaddr_responder]
type=IsaFake
children=power_state
clk_domain=system.clk_domain
eventq_index=0
fake_mem=false
pio_addr=0
pio_latency=100000
pio_size=8
power_model=
power_state=system.membus.badaddr_responder.power_state
ret_bad_addr=true
ret_data16=65535
ret_data32=4294967295
ret_data64=18446744073709551615
ret_data8=255
system=system
update_data=false
warn_access=
pio=system.membus.default

[system.membus.badaddr_responder.power_state]
type=PowerState
clk_gate_bins=20
clk_gate_max=1000000000000
clk_gate_min=1000
default_state=UNDEFINED
eventq_index=0
leaders=
possible_states=

[system.membus.power_state]
type=PowerState
clk_gate_bins=20
clk_gate_max=1000000000000
clk_gate_min=1000
default_state=UNDEFINED
eventq_index=0
leaders=
possible_states=

[system.membus.snoop_filter]
type=SnoopFilter
eventq_index=0
lookup_latency=1
max_capacity=8388608
system=system

[system.platform]
type=HiFive
children=clint pci_host plic rtc terminal uart
clint=system.platform.clint
eventq_index=0
plic=system.platform.plic
system=system
uart_int_id=10

[system.platform.clint]
type=Clint
children=power_state
clk_domain=system.clk_domain
eventq_index=0
num_threads=1
pio_addr=33554432
pio_latency=100000
pio_size=49152
power_model=
power_state=system.platform.clint.power_state
system=system
int_pin=system.platform.rtc.int_pin[0]
pio=system.membus.mem_side_ports[1]

[system.platform.clint.power_state]
type=PowerState
clk_gate_bins=20
clk_gate_max=1000000000000
clk_gate_min=1000
default_state=UNDEFINED
eventq_index=0
leaders=
possible_states=

[system.platform.pci_host]
type=GenericRiscvPciHost
children=power_state
clk_domain=system.clk_domain
conf_base=805306368
conf_device_bits=12
conf_size=268435456
eventq_index=0
int_base=16
int_count=4
pci_dma_base=0
pci_mem_base=1073741824
pci_pio_base=788529152
platform=system.platform
power_model=
power_state=system.platform.pci_host.power_state
system=system

[system.platform.pci_host.power_state]
type=PowerState
clk_gate_bins=20
clk_gate_max=1000000000000
clk_gate_min=1000
default_state=UNDEFINED
eventq_index=0
leaders=
possible_states=

[system.platform.plic]
type=Plic
children=power_state
clk_domain=system.clk_domain
eventq_index=0
n_contexts=2
n_src=21
pio_addr=201326592
pio_latency=100000
pio_size=67108864
power_model=
power_state=system.platform.plic.power_state
system=system
pio=system.membus.mem_side_ports[2]

[system.platform.plic.power_state]
type=PowerState
clk_gate_bins=20
clk_gate_max=1000000000000
clk_gate_min=1000
default_state=UNDEFINED
eventq_index=0
leaders=
possible_states=

[system.platform.rtc]
type=RiscvRTC
bcd=false
eventq_index=0
frequency=10000
time=Sun Jan  1 00:00:00 2012
int_pin=system.platform.clint.int_pin

[system.platform.terminal]
type=Terminal
eventq_index=0
number=0
outfile=file
port=3456

[system.platform.uart]
type=Uart8250
children=power_state
clk_domain=system.clk_domain
device=system.platform.terminal
eventq_index=0
pio_addr=268435456
pio_latency=100000
pio_size=8
platform=system.platform
power_model=
power_state=system.platform.uart.power_state
system=system
pio=system.iobus.mem_side_ports[0]

[system.platform.uart.power_state]
type=PowerState
clk_gate_bins=20
clk_gate_max=1000000000000
clk_gate_min=1000
default_state=UNDEFINED
eventq_index=0
leaders=
possible_states=

[system.voltage_domain]
type=VoltageDomain
eventq_index=0
voltage=1.0

[system.workload]
type=RiscvLinux
addr_check=true
command_line=console=ttyS0 root=/dev/vda ro
dtb_addr=2279604224
dtb_filename=ebug-flags=Exec/device.dtb
eventq_index=0
extras=
extras_addrs=
load_addr_mask=18446744073709551615
load_addr_offset=0
object_file=../riscv64-sample/riscv-pk/build/bbl
remote_gdb_port=7000
wait_for_remote_gdb=false

